-------------------------------------------------------
          Amber 22 PMEMD                              2022
          -------------------------------------------------------

  [-O]verwriting output

File Assignments:

 Here is the input file:

Equilibration
 &cntrl
  imin=0,
  ntx=5,
  irest=1,
  ntc=2,
  ntf=2,
  tol=0.0000001,
  ntt=3,
  gamma_ln=1.0,
  temp0=300.0,
  ig = -1,
  ntpr=1000,
  ntwr=500,
  ntwx=500,
  nstlim=50000,
  dt=0.002,
  ntb=2,
  cut=10.0,
  ioutfm=1,
  ntxo=2,
  nmropt=1,
  ntp=3,
  csurften=3,
  gamma_ten=0.0,
  ninterface=2,
/
 &wt type='DUMPFREQ', istep1=1000 /
 &wt type='END', /
DISANG=COM_dist.RST
DUMPAVE=dist.dat
LISTIN=POUT
LISTOUT=POUT
/
/
 &ewald
  skinnb=3.0,
 /

Note: ig = -1. Setting random seed to   434088 based on wallclock time in
      microseconds.

--------------------------------------------------------------------------------
   1.  RESOURCE   USE:
--------------------------------------------------------------------------------

 getting box info from netcdf restart file
 NATOM  =   35480 NTYPES =       8 NBONH =   17734 MBONA  =   11851
 NTHETH =   35471 MTHETA =    5973 NPHIH =   17838 MPHIA  =     115
 NHPARM =       0 NPARM  =       0 NNB   =   94831 NRES   =    5902
 NBONA  =   11851 NTHETA =    5973 NPHIA =     115 NUMBND =      22
 NUMANG =      36 NPTRA  =      28 NATYP =      17 NPHB   =       0
 IFBOX  =       1 NMXRS  =      47 IFCAP =       0 NEXTRA =       0
 NCOPY  =       0

     BOX TYPE: RECTILINEAR

--------------------------------------------------------------------------------
   2.  CONTROL  DATA  FOR  THE  RUN
--------------------------------------------------------------------------------

default_name

General flags:
     imin    =       0, nmropt  =       1

Nature and format of input:
     ntx     =       5, irest   =       1, ntrx    =       1

Nature and format of output:
     ntxo    =       2, ntpr    =    1000, ntrx    =       1, ntwr    =     500
     iwrap   =       0, ntwx    =     500, ntwv    =       0, ntwe    =       0
     ioutfm  =       1, ntwprt  =       0, idecomp =       0, rbornstat=      0

Potential function:
     ntf     =       2, ntb     =       2, igb     =       0, nsnb    =      25
     ipol    =       0, gbsa    =       0, iesp    =       0
     dielc   =   1.00000, cut     =  10.00000, intdiel =   1.00000

Frozen or restrained atoms:
     ibelly  =       0, ntr     =       0

Molecular dynamics:
     nstlim  =     50000, nscm    =      1000, nrespa  =         1
     t       =   0.00000, dt      =   0.00200, vlimit  =  -1.00000

Langevin dynamics temperature regulation:
     ig      =  434088
     temp0   = 300.00000, tempi   =   0.00000, gamma_ln=   1.00000

Pressure regulation:
     ntp     =       3
     pres0   =   1.00000, comp    =  44.60000, taup    =   1.00000

Constant surface tension:
     csurften  =       3
     gamma_ten =   0.00000 ninterface =       2

SHAKE:
     ntc     =       2, jfastw  =       0
     tol     =   0.00000

NMR refinement options:
     iscale  =       0, noeskp  =       1, ipnlty  =       1, mxsub   =       1
     scalm   = 100.00000, pencut  =   0.10000, tausw   =   0.10000

Ewald parameters:
     verbose =       0, ew_type =       0, nbflag  =       1, use_pme =       1
     vdwmeth =       1, eedmeth =       1, netfrc  =       1
     Box X =  112.268   Box Y =  112.649   Box Z =  113.076
     Alpha =   90.000   Beta  =   90.000   Gamma =   90.000
     NFFT1 =  120       NFFT2 =  120       NFFT3 =  120
     Cutoff=   10.000   Tol   =0.100E-04
     Ewald Coefficient =  0.27511
     Interpolation order =    4

--------------------------------------------------------------------------------
   3.  ATOMIC COORDINATES AND VELOCITIES
--------------------------------------------------------------------------------

default_name
 begin time read from input coords =    21.250 ps

           Begin reading energy term weight changes/NMR restraints
 WEIGHT CHANGES:
 DUMPFREQ   1000      0    0.000000    0.000000      0      0
                         ** No weight changes given **

 RESTRAINTS:
 Requested file redirections:
  DISANG    = COM_dist.RST
  DUMPAVE   = dist.dat
  LISTIN    = POUT
  LISTOUT   = POUT
 Restraints will be read from file: COM_dist.RST
Here are comments from the DISANG input file:

******
 COM (   -1)-COM (   -1)                            NSTEP1=     0 NSTEP2=     0
 Atom ranges defining Center of Mass Group in the first position:
     1 ->    33/
 Atom ranges defining Center of Mass Group in the second position:
    34 ->    80/
R1 = -29.700 R2 =   0.300 R3 =   0.300 R4 =  62.300 RK2 =   1.000 RK3 =    1.000
 Rcurr:   18.941  Rcurr-(R2+R3)/2:   18.641  MIN(Rcurr-R2,Rcurr-R3):   18.641
                       Number of restraints read =     1

                  Done reading weight changes/NMR restraints

 Number of triangulated 3-point waters found:        0

     Sum of charges from parm topology file =  -0.94068749
     Assuming uniform neutralizing plasma

--------------------------------------------------------------------------------
   4.  RESULTS
 NSTEP =     1000   TIME(PS) =      23.250  TEMP(K) =   273.87  PRESS =   114.6
 Etot   =    -89852.6799  EKtot   =     24138.5527  EPtot      =   -113991.2326
 BOND   =      3537.1414  ANGLE   =     12383.3410  DIHED      =        13.5220
 1-4 NB =      -332.7001  1-4 EEL =    -87916.2178  VDWAALS    =    -20368.9167
 EELEC  =    -21377.8803  EHBOND  =         0.0000  RESTRAINT  =        70.4779
 EAMBER (non-restraint)  =   -114061.7105
 EKCMT  =      4692.6648  VIRIAL  =      1089.4282  VOLUME     =   1456326.6523
                                                    SURFTEN    =        38.6784
                                                    Density    =         0.2769
 ------------------------------------------------------------------------------

      A V E R A G E S   O V E R      50 S T E P S

 NSTEP =    50000   TIME(PS) =     121.250  TEMP(K) =   299.26  PRESS =   -34.9
 Etot   =    -81229.5532  EKtot   =     26376.5166  EPtot      =   -107606.0698
 BOND   =      3869.8387  ANGLE   =     13321.7731  DIHED      =        16.0309
 1-4 NB =      -329.6454  1-4 EEL =    -87923.5493  VDWAALS    =    -17428.4565
 EELEC  =    -19156.5833  EHBOND  =         0.0000  RESTRAINT  =        24.5220
 EAMBER (non-restraint)  =   -107630.5918
 EKCMT  =      5257.9453  VIRIAL  =      6257.4493  VOLUME     =   1352487.5300
                                                    SURFTEN    =        -1.6326
                                                    Density    =         0.2991
 ------------------------------------------------------------------------------

      R M S  F L U C T U A T I O N S

 NSTEP =    50000   TIME(PS) =     121.250  TEMP(K) =     4.12  PRESS =    31.3
 Etot   =      1347.2290  EKtot   =       363.1600  EPtot      =      1003.4030
 BOND   =        61.8131  ANGLE   =       162.1324  DIHED      =         3.2183
 1-4 NB =         1.4235  1-4 EEL =        16.1734  VDWAALS    =       484.1253
 EELEC  =       360.1838  EHBOND  =         0.0000  RESTRAINT  =         8.3871
 EAMBER (non-restraint)  =       995.0160
 EKCMT  =       104.5264  VIRIAL  =      1004.7340  VOLUME     =     74678.3559
                                                    SURFTEN    =        18.5873
                                                    Density    =         0.0167
 ------------------------------------------------------------------------------
